*Heading
*Node
1, -10.0, -10.0
2, -9.0, -10.0
3, -8.0, -10.0
4, -7.0, -10.0
5, -6.0, -10.0
6, -5.0, -10.0
7, -4.0, -10.0
8, -3.0, -10.0
9, -2.0, -10.0
10, -1.0, -10.0
11, 0.0, -10.0
12, 1.0, -10.0
13, 2.0, -10.0
14, 3.0, -10.0
15, 4.0, -10.0
16, 5.0, -10.0
17, 6.0, -10.0
18, 7.0, -10.0
19, 8.0, -10.0
20, 9.0, -10.0
** ... 421 like lines cut
*Element, type=CPS4R
1, 1, 2, 23, 22
2, 2, 3, 24, 23
3, 3, 4, 25, 24
4, 4, 5, 26, 25
5, 5, 6, 27, 26
6, 6, 7, 28, 27
7, 7, 8, 29, 28
8, 8, 9, 30, 29
9, 9, 10, 31, 30
10, 10, 11, 32, 31
11, 11, 12, 33, 32
12, 12, 13, 34, 33
13, 13, 14, 35, 34
14, 14, 15, 36, 35
15, 15, 16, 37, 36
16, 16, 17, 38, 37
17, 17, 18, 39, 38
18, 18, 19, 40, 39
19, 19, 20, 41, 40
20, 20, 21, 42, 41
** ... 380 like lines cut
*Nset, nset=all_node, generate
1, 441, 1
*Nset, nset=x2, generate
21, 441, 21
*Nset, nset=x1, generate
1, 421, 21
*Nset, nset=y2, generate
421, 441, 1
*Nset, nset=y1, generate
1, 21, 1
*Elset, elset=layer1, generate
1, 220, 1
*Elset, elset=layer2, generate
181, 400, 1
*Elset, elset=all_element, generate
1, 400, 1
*Elset, elset=Sec_1_Mat_1, generate
1, 220, 1
*Elset, elset=Sec_2_Mat_2, generate
181, 400, 1
*Solid Section, elset=Sec_1_Mat_1, material=Mat_1
,
*Solid Section, elset=Sec_2_Mat_2, material=Mat_2
,
*Material, name=Mat_1
*Density
2000,
*Elastic
224000000.0,0.4
*Material, name=Mat_2
*Density
2000,
*Elastic
56000000.0,0.4
